Version 4
SHEET 1 880 680
WIRE 16 128 -80 128
WIRE 128 128 96 128
WIRE 256 128 208 128
WIRE 320 128 256 128
WIRE -80 160 -80 128
WIRE 256 160 256 128
WIRE 320 160 320 128
WIRE -80 272 -80 240
WIRE 112 272 -80 272
WIRE 256 272 256 224
WIRE 256 272 112 272
WIRE 320 272 320 240
WIRE 320 272 256 272
WIRE 112 304 112 272
FLAG 112 304 0
SYMBOL voltage -80 144 R0
WINDOW 123 0 0 Left 2
WINDOW 39 0 0 Left 2
SYMATTR Value2 ""
SYMATTR SpiceLine ""
SYMATTR InstName V1
SYMATTR Value SINE(0 10 1k)
SYMBOL res 304 144 R0
SYMATTR InstName R1
SYMATTR Value 1k
SYMBOL cap 240 160 R0
SYMATTR InstName C1
SYMATTR Value 1n
SYMATTR SpiceLine ""
SYMBOL res 0 144 R270
WINDOW 0 32 56 VTop 2
WINDOW 3 0 56 VBottom 2
SYMATTR InstName R2
SYMATTR Value 5k
SYMBOL ind 112 144 R270
WINDOW 0 32 56 VTop 2
WINDOW 3 5 56 VBottom 2
SYMATTR InstName L1
SYMATTR Value 10µ
TEXT -112 328 Left 2 !.tran 5m
