Version 4
SHEET 1 880 680
WIRE 192 96 80 96
WIRE 352 96 272 96
WIRE 80 144 80 96
WIRE 352 144 352 96
WIRE 80 240 80 224
WIRE 224 240 80 240
WIRE 352 240 352 224
WIRE 352 240 224 240
WIRE 224 272 224 240
FLAG 224 272 0
SYMBOL voltage 80 128 R0
WINDOW 123 0 0 Left 2
WINDOW 39 0 0 Left 2
SYMATTR InstName V1
SYMATTR Value SINE(0 10 1k)
SYMATTR Value2 ""
SYMATTR SpiceLine ""
SYMBOL res 336 128 R0
SYMATTR InstName R1
SYMATTR Value 10k
SYMATTR SpiceLine ""
SYMBOL res 176 112 R270
WINDOW 0 32 56 VTop 2
WINDOW 3 0 56 VBottom 2
SYMATTR InstName R2
SYMATTR Value 10k
TEXT 46 296 Left 2 !.tran 5m
