Version 4
SHEET 1 880 680
WIRE 144 112 32 112
WIRE 144 144 144 112
WIRE 32 224 32 112
WIRE 144 288 144 224
WIRE 448 288 144 288
WIRE 448 320 448 288
WIRE 144 336 144 288
WIRE 32 448 32 304
WIRE 144 448 144 416
WIRE 448 448 448 400
FLAG 32 448 0
FLAG 448 448 0
FLAG 144 448 0
SYMBOL voltage 32 208 R0
WINDOW 123 24 124 Left 2
WINDOW 39 0 0 Left 2
SYMATTR InstName V1
SYMATTR Value2 AC 10V
SYMATTR SpiceLine ""
SYMBOL res 128 128 R0
SYMATTR InstName R1
SYMATTR Value {1+Rtotal*position}
SYMATTR SpiceLine ""
SYMBOL res 128 320 R0
SYMATTR InstName R2
SYMATTR Value {1+Rtotal*(1-position)}
SYMATTR SpiceLine ""
SYMBOL res 432 304 R0
SYMATTR InstName R3
SYMATTR Value 10k
SYMATTR SpiceLine tol=10
TEXT 104 72 Left 2 !.param Rtotal = 10k
TEXT 96 48 Left 2 !.step param position 0 1 .1
TEXT 128 496 Left 2 !.ac dec 101 10 10MEG
