Version 4
SHEET 1 880 680
WIRE 320 -48 192 -48
WIRE 112 -16 112 -48
WIRE 128 -16 112 -16
WIRE 272 0 176 0
WIRE 176 32 176 0
WIRE 272 32 272 0
WIRE 176 160 176 112
WIRE 128 176 128 -16
WIRE 128 176 112 176
WIRE 144 176 128 176
WIRE 320 192 320 -48
WIRE 320 192 208 192
WIRE 144 208 128 208
WIRE 32 272 32 176
WIRE 176 272 176 224
WIRE 32 384 32 352
WIRE 128 384 128 208
WIRE 176 384 176 352
FLAG 272 32 0
FLAG 176 384 0
FLAG 32 384 0
FLAG 128 384 0
SYMBOL Opamps\\LT1001 176 128 R0
SYMATTR InstName U1
SYMBOL voltage 32 256 R0
WINDOW 3 -160 98 Left 2
WINDOW 123 24 72 Left 2
WINDOW 39 0 0 Left 2
SYMATTR Value SINE(1V 100mV 5k)
SYMATTR Value2 AC 1
SYMATTR SpiceLine ""
SYMATTR InstName V1
SYMBOL voltage 176 128 M180
WINDOW 0 24 96 Left 2
WINDOW 3 24 16 Left 2
WINDOW 123 0 0 Left 2
WINDOW 39 0 0 Left 2
SYMATTR InstName V2
SYMATTR Value 14V
SYMATTR Value2 ""
SYMATTR SpiceLine ""
SYMBOL voltage 176 368 M180
WINDOW 0 24 96 Left 2
WINDOW 3 24 16 Left 2
WINDOW 123 0 0 Left 2
WINDOW 39 0 0 Left 2
SYMATTR InstName V3
SYMATTR Value 14V
SYMATTR Value2 ""
SYMATTR SpiceLine ""
SYMBOL res 208 -64 R90
WINDOW 0 0 56 VBottom 2
WINDOW 3 32 56 VTop 2
SYMATTR InstName R1
SYMATTR Value 99k
SYMATTR SpiceLine tol=10
SYMBOL res 16 192 R270
WINDOW 0 32 56 VTop 2
WINDOW 3 0 56 VBottom 2
SYMATTR InstName R2
SYMATTR Value 10k
SYMATTR SpiceLine tol=10
TEXT -104 16 Left 2 !.tran 0 1ms 0 1ns
