Version 4
SHEET 1 880 680
WIRE 32 16 -80 16
WIRE 128 16 32 16
WIRE 304 16 192 16
WIRE -80 112 -80 16
WIRE 304 112 304 96
WIRE 32 160 32 16
WIRE 64 160 32 160
WIRE 176 160 144 160
WIRE 304 160 240 160
WIRE -80 240 -80 192
WIRE 304 256 304 240
WIRE 32 288 32 160
WIRE 64 288 32 288
WIRE 304 288 144 288
WIRE 304 384 304 368
FLAG -80 240 0
FLAG 304 112 0
FLAG 304 256 0
FLAG 304 384 0
SYMBOL voltage -80 96 R0
WINDOW 123 24 124 Left 2
WINDOW 39 0 0 Left 2
SYMATTR InstName V1
SYMATTR Value2 AC 1
SYMATTR SpiceLine ""
SYMBOL res 288 0 R0
SYMATTR InstName 8
SYMATTR Value 8.2
SYMATTR SpiceLine ""
SYMBOL res 288 144 R0
SYMATTR InstName R2
SYMATTR Value 8.2
SYMATTR SpiceLine ""
SYMBOL res 288 272 R0
SYMATTR InstName R3
SYMATTR Value 8.2
SYMATTR SpiceLine ""
SYMBOL ind 160 144 R90
WINDOW 0 5 56 VBottom 2
WINDOW 3 32 56 VTop 2
SYMATTR InstName .25mH
SYMATTR Value .25mH
SYMATTR SpiceLine ""
SYMBOL ind 160 272 R90
WINDOW 0 5 56 VBottom 2
WINDOW 3 32 56 VTop 2
SYMATTR InstName 2.0mH
SYMATTR Value 2.0mH
SYMATTR SpiceLine ""
SYMBOL cap 192 0 R90
WINDOW 0 0 32 VBottom 2
WINDOW 3 32 32 VTop 2
SYMATTR InstName 3.3uF
SYMATTR Value 3.3µF
SYMBOL cap 240 144 R90
WINDOW 0 0 32 VBottom 2
WINDOW 3 32 32 VTop 2
SYMATTR InstName 33uF
SYMATTR Value 33µF
SYMATTR SpiceLine ""
TEXT -114 408 Left 2 !.ac dec 101 10 100000
